12

O      -1.502169000e+00  -1.913590000e-01   1.434927000e+00
H      -2.006698000e+00  -4.223270000e-01   2.219847000e+00
H      -6.010540000e-01  -5.969720000e-01   1.553718000e+00
O      -1.744575000e+00  -3.823480000e-01  -1.309144000e+00
H      -2.516835000e+00  -7.667650000e-01  -1.733766000e+00
H      -1.888941000e+00  -4.796530000e-01  -3.476240000e-01
O      -5.604090000e-01   2.017830000e+00  -1.219840000e-01
H      -9.898310000e-01   1.592736000e+00  -8.774190000e-01
H      -9.477200000e-01   1.533567000e+00   6.252280000e-01
O       9.648030000e-01  -1.165765000e+00   1.439987000e+00
H       1.542224000e+00  -3.936920000e-01   1.344373000e+00
H       9.795570000e-01  -1.522041000e+00   5.278330000e-01

